test/results/results/nordic_fault/br27/network_data.json
{"converter":{"2":{"c2":{"(2, 2)":0.0001,"(1, 4042)":0.0001},"c1":{"(2, 2)":0.0001,"(1, 4042)":0.0001},"converter_buses":[[1,4042],[2,2]],"M":{"(2, 2)":0.9,"(1, 4042)":0.9},"c3":{"(2, 2)":0.0001,"(1, 4042)":0.0001},"sw1":{"(2, 2)":0.0001,"(1, 4042)":0.0001},"sw2":{"(2, 2)":0.0001,"(1, 4042)":0.0001},"imax":{"(2, 2)":40.0,"(1, 4042)":40.0},"sw3":{"(2, 2)":0.0001,"(1, 4042)":0.0001},"vmax":{"(2, 2)":1.1,"(1, 4042)":1.1}},"1":{"c2":{"(1, 4021)":0.0001,"(2, 1)":0.0001},"c1":{"(1, 4021)":0.0001,"(2, 1)":0.0001},"converter_buses":[[1,4021],[2,1]],"M":{"(1, 4021)":0.9,"(2, 1)":0.9},"c3":{"(1, 4021)":0.0001,"(2, 1)":0.0001},"sw1":{"(1, 4021)":0.0001,"(2, 1)":0.0001},"sw2":{"(1, 4021)":0.0001,"(2, 1)":0.0001},"imax":{"(1, 4021)":40.0,"(2, 1)":40.0},"sw3":{"(1, 4021)":0.0001,"(2, 1)":0.0001},"vmax":{"(1, 4021)":1.1,"(2, 1)":1.1}}},"sn":{"1":{"bus":{"32":{"zone":1,"bus_i":32,"bus_type":1,"name":"LOAD 2032   ","vmax":1.1,"source_id":["bus",32],"area":1,"vmin":0.9,"index":32,"va":-1.5199985189156016,"vm":0.99453,"base_kv":20.0},"1":{"zone":1,"bus_i":1,"bus_type":1,"name":"LOAD 1041   ","vmax":1.1,"source_id":["bus",1],"area":2,"vmin":0.9,"index":1,"va":-2.6868523529704267,"vm":0.97678,"base_kv":20.0},"2":{"zone":1,"bus_i":2,"bus_type":1,"name":"LOAD 1042   ","vmax":1.1,"source_id":["bus",2],"area":2,"vmin":0.9,"index":2,"va":-2.4332490313386423,"vm":0.99544,"base_kv":20.0},"41":{"zone":1,"bus_i":41,"bus_type":1,"name":"LOAD 4041   ","vmax":1.1,"source_id":["bus",41],"area":2,"vmin":0.9,"index":41,"va":-2.1213726566412716,"vm":0.96456,"base_kv":20.0},"51":{"zone":1,"bus_i":51,"bus_type":1,"name":"LOAD 4051   ","vmax":1.1,"source_id":["bus",51],"area":2,"vmin":0.9,"index":51,"va":-2.4904382349387406,"vm":0.98649,"base_kv":20.0},"42":{"zone":1,"bus_i":42,"bus_type":1,"name":"LOAD 4042   ","vmax":1.1,"source_id":["bus",42],"area":2,"vmin":0.9,"index":42,"va":-2.205961784168429,"vm":0.96225,"base_kv":20.0},"4021":{"converter_sw1":{"1":0.0},"zone":1,"converter_sw3":{"1":0.0},"bus_i":4021,"bus_type":1,"name":"4021        ","converter_sw2":{"1":0.0},"converter_index":[[1,1,4021]],"converter_c2":{"1":0.0},"converter_vmax":{"1":1.1},"vmax":1.1,"source_id":["bus",4021],"area":1,"converter_c3":{"1":0.0},"vmin":0.9,"index":4021,"va":-1.6945035188470028,"converter_M":{"1":0.9},"vm":1.02681,"converter_imax":{"1":40.0},"base_kv":400.0,"converter_c1":{"1":0.0}},"4043":{"zone":1,"bus_i":4043,"bus_type":1,"name":"4043        ","vmax":1.1,"source_id":["bus",4043],"area":2,"vmin":0.9,"index":4043,"va":-2.292121708022381,"vm":1.00972,"base_kv":400.0},"1013":{"zone":1,"bus_i":1013,"bus_type":1,"name":"1013        ","vmax":1.1,"source_id":["bus",1013],"area":1,"vmin":0.9,"index":1013,"va":-1.0379595234657917,"vm":1.05534,"base_kv":130.0},"50018":{"zone":1,"bus_i":50018,"bus_type":2,"name":"G18         ","vmax":1.1,"source_id":["bus",50018],"area":3,"vmin":0.9,"index":50018,"va":-1.9139507470172576,"vm":1.03372,"base_kv":15.0},"63":{"zone":1,"bus_i":63,"bus_type":1,"name":"LOAD 4063   ","vmax":1.1,"source_id":["bus",63],"area":3,"vmin":0.9,"index":63,"va":-2.090843357365387,"vm":0.99748,"base_kv":20.0},"4071":{"zone":1,"bus_i":4071,"bus_type":1,"name":"4071        ","vmax":1.1,"source_id":["bus",4071],"area":4,"vmin":0.9,"index":4071,"va":-1.1479292289754506,"vm":1.04872,"base_kv":400.0},"4046":{"zone":1,"bus_i":4046,"bus_type":1,"name":"4046        ","vmax":1.1,"source_id":["bus",4046],"area":2,"vmin":0.9,"index":4046,"va":-2.3025413236567873,"vm":1.01377,"base_kv":400.0},"4047":{"zone":1,"bus_i":4047,"bus_type":1,"name":"4047        ","vmax":1.1,"source_id":["bus",4047],"area":2,"vmin":0.9,"index":4047,"va":-2.2212177071601116,"vm":1.04502,"base_kv":400.0},"4012":{"zone":1,"bus_i":4012,"bus_type":1,"name":"4012        ","vmax":1.1,"source_id":["bus",4012],"area":1,"vmin":0.9,"index":4012,"va":-1.154523082889485,"vm":1.02253,"base_kv":400.0},"50020":{"zone":1,"bus_i":50020,"bus_type":3,"name":"G20         ","vmax":1.1,"source_id":["bus",50020],"area":4,"vmin":0.9,"index":50020,"va":-1.062797304050923,"vm":1.01954,"base_kv":15.0},"50013":{"zone":1,"bus_i":50013,"bus_type":2,"name":"G13         ","vmax":1.1,"source_id":["bus",50013],"area":2,"vmin":0.9,"index":50013,"va":-2.0700669579496465,"vm":1.01186,"base_kv":15.0},"50005":{"zone":1,"bus_i":50005,"bus_type":2,"name":"G5          ","vmax":1.1,"source_id":["bus",50005],"area":1,"vmin":0.9,"index":50005,"va":-1.2698108066299705,"vm":1.03132,"base_kv":15.0},"4045":{"zone":1,"bus_i":4045,"bus_type":1,"name":"4045        ","vmax":1.1,"source_id":["bus",4045],"area":2,"vmin":0.9,"index":4045,"va":-2.402066978922512,"vm":1.02901,"base_kv":400.0},"5":{"zone":1,"bus_i":5,"bus_type":1,"name":"LOAD 1043   ","vmax":1.1,"source_id":["bus",5],"area":2,"vmin":0.9,"index":5,"va":-2.504296149199576,"vm":0.9732,"base_kv":20.0},"31":{"zone":1,"bus_i":31,"bus_type":1,"name":"LOAD 2031   ","vmax":1.1,"source_id":["bus",31],"area":1,"vmin":0.9,"index":31,"va":-1.7416134460168335,"vm":0.98638,"base_kv":20.0},"62":{"zone":1,"bus_i":62,"bus_type":1,"name":"LOAD 4062   ","vmax":1.1,"source_id":["bus",62],"area":3,"vmin":0.9,"index":62,"va":-2.1551535043136223,"vm":0.99324,"base_kv":20.0},"43":{"zone":1,"bus_i":43,"bus_type":1,"name":"LOAD 4043   ","vmax":1.1,"source_id":["bus",43],"area":2,"vmin":0.9,"index":43,"va":-2.342587903343798,"vm":0.97491,"base_kv":20.0},"4072":{"zone":1,"bus_i":4072,"bus_type":1,"name":"4072        ","vmax":1.1,"source_id":["bus",4072],"area":4,"vmin":0.9,"index":4072,"va":-1.1317796974067469,"vm":1.05993,"base_kv":400.0},"50015":{"zone":1,"bus_i":50015,"bus_type":2,"name":"G15         ","vmax":1.1,"source_id":["bus",50015],"area":2,"vmin":0.9,"index":50015,"va":-2.091956877428159,"vm":1.04792,"base_kv":15.0},"4062":{"zone":1,"bus_i":4062,"bus_type":1,"name":"4062        ","vmax":1.1,"source_id":["bus",4062],"area":3,"vmin":0.9,"index":4062,"va":-2.105558228288951,"vm":1.04869,"base_kv":400.0},"50014":{"zone":1,"bus_i":50014,"bus_type":2,"name":"G14         ","vmax":1.1,"source_id":["bus",50014],"area":2,"vmin":0.9,"index":50014,"va":-2.0204123407304078,"vm":1.04574,"base_kv":15.0},"71":{"zone":1,"bus_i":71,"bus_type":1,"name":"LOAD 4071   ","vmax":1.1,"source_id":["bus",71],"area":4,"vmin":0.9,"index":71,"va":-1.1969206210789314,"vm":1.00302,"base_kv":20.0},"47":{"zone":1,"bus_i":47,"bus_type":1,"name":"LOAD 4047   ","vmax":1.1,"source_id":["bus",47],"area":2,"vmin":0.9,"index":47,"va":-2.271251060827033,"vm":0.98175,"base_kv":20.0},"2031":{"zone":1,"bus_i":2031,"bus_type":1,"name":"2031        ","vmax":1.1,"source_id":["bus",2031],"area":1,"vmin":0.9,"index":2031,"va":-1.6917877865308995,"vm":1.0097,"base_kv":220.0},"50008":{"zone":1,"bus_i":50008,"bus_type":2,"name":"G8          ","vmax":1.1,"source_id":["bus",50008],"area":1,"vmin":0.9,"index":50008,"va":-1.3474221078076543,"vm":1.05232,"base_kv":15.0},"12":{"zone":1,"bus_i":12,"bus_type":1,"name":"LOAD 1012   ","vmax":1.1,"source_id":["bus",12],"area":1,"vmin":0.9,"index":12,"va":-1.1620925758553844,"vm":0.99747,"base_kv":20.0},"4031":{"zone":1,"bus_i":4031,"bus_type":1,"name":"4031        ","vmax":1.1,"source_id":["bus",4031],"area":1,"vmin":0.9,"index":4031,"va":-1.7418647734291208,"vm":1.01452,"base_kv":400.0},"50009":{"zone":1,"bus_i":50009,"bus_type":2,"name":"G9          ","vmax":1.1,"source_id":["bus",50009],"area":1,"vmin":0.9,"index":50009,"va":-1.0871935163353,"vm":1.00027,"base_kv":15.0},"4022":{"zone":1,"bus_i":4022,"bus_type":1,"name":"4022        ","vmax":1.1,"source_id":["bus",4022],"area":1,"vmin":0.9,"index":4022,"va":-1.417057254303724,"vm":0.98654,"base_kv":400.0},"1012":{"zone":1,"bus_i":1012,"bus_type":1,"name":"1012        ","vmax":1.1,"source_id":["bus",1012],"area":1,"vmin":0.9,"index":1012,"va":-1.1125775849763053,"vm":1.06335,"base_kv":130.0},"1044":{"zone":1,"bus_i":1044,"bus_type":1,"name":"1044        ","vmax":1.1,"source_id":["bus",1044],"area":2,"vmin":0.9,"index":1044,"va":-2.3853502153469104,"vm":0.97838,"base_kv":130.0},"4061":{"zone":1,"bus_i":4061,"bus_type":1,"name":"4061        ","vmax":1.1,"source_id":["bus",4061],"area":3,"vmin":0.9,"index":4061,"va":-2.1586825600611546,"vm":1.02281,"base_kv":400.0},"4051":{"zone":1,"bus_i":4051,"bus_type":1,"name":"4051        ","vmax":1.1,"source_id":["bus",4051],"area":2,"vmin":0.9,"index":4051,"va":-2.440490402405167,"vm":1.05392,"base_kv":400.0},"1042":{"zone":1,"bus_i":1042,"bus_type":1,"name":"1042        ","vmax":1.1,"source_id":["bus",1042],"area":2,"vmin":0.9,"index":1042,"va":-2.3787615974206315,"vm":1.00869,"base_kv":130.0},"1014":{"zone":1,"bus_i":1014,"bus_type":1,"name":"1014        ","vmax":1.1,"source_id":["bus",1014],"area":1,"vmin":0.9,"index":1014,"va":-0.9860097982801805,"vm":1.06201,"base_kv":130.0},"50004":{"zone":1,"bus_i":50004,"bus_type":2,"name":"G4          ","vmax":1.1,"source_id":["bus",50004],"area":1,"vmin":0.9,"index":50004,"va":-0.9210119916066597,"vm":1.03618,"base_kv":15.0},"50011":{"zone":1,"bus_i":50011,"bus_type":2,"name":"G11         ","vmax":1.1,"source_id":["bus",50011],"area":1,"vmin":0.9,"index":50011,"va":-1.5704524969322537,"vm":1.02173,"base_kv":15.0},"4063":{"zone":1,"bus_i":4063,"bus_type":1,"name":"4063        ","vmax":1.1,"source_id":["bus",4063],"area":3,"vmin":0.9,"index":4063,"va":-2.0418188040061183,"vm":1.05174,"base_kv":400.0},"1021":{"zone":1,"bus_i":1021,"bus_type":1,"name":"1021        ","vmax":1.1,"source_id":["bus",1021],"area":1,"vmin":0.9,"index":1021,"va":-1.0130013151622728,"vm":1.03218,"base_kv":130.0},"50012":{"zone":1,"bus_i":50012,"bus_type":2,"name":"G12         ","vmax":1.1,"source_id":["bus",50012],"area":1,"vmin":0.9,"index":50012,"va":-1.608245856554939,"vm":1.02094,"base_kv":15.0},"50017":{"zone":1,"bus_i":50017,"bus_type":2,"name":"G17         ","vmax":1.1,"source_id":["bus",50017],"area":3,"vmin":0.9,"index":50017,"va":-1.9746183918165805,"vm":1.01208,"base_kv":15.0},"50002":{"zone":1,"bus_i":50002,"bus_type":2,"name":"G2          ","vmax":1.1,"source_id":["bus",50002],"area":1,"vmin":0.9,"index":50002,"va":-0.9717033344015831,"vm":1.05799,"base_kv":15.0},"4":{"zone":1,"bus_i":4,"bus_type":1,"name":"LOAD 1044   ","vmax":1.1,"source_id":["bus",4],"area":2,"vmin":0.9,"index":4,"va":-2.4385181803504135,"vm":0.97155,"base_kv":20.0},"4011":{"zone":1,"bus_i":4011,"bus_type":1,"name":"4011        ","vmax":1.1,"source_id":["bus",4011],"area":1,"vmin":0.9,"index":4011,"va":-1.1893999973320877,"vm":1.02043,"base_kv":400.0},"4044":{"zone":1,"bus_i":4044,"bus_type":1,"name":"4044        ","vmax":1.1,"source_id":["bus",4044],"area":2,"vmin":0.9,"index":4044,"va":-2.3230245077581926,"vm":1.0087,"base_kv":400.0},"1041":{"zone":1,"bus_i":1041,"bus_type":1,"name":"1041        ","vmax":1.1,"source_id":["bus",1041],"area":2,"vmin":0.9,"index":1041,"va":-2.636270965918379,"vm":0.99014,"base_kv":130.0},"22":{"zone":1,"bus_i":22,"bus_type":1,"name":"LOAD 1022   ","vmax":1.1,"source_id":["bus",22],"area":1,"vmin":0.9,"index":22,"va":-1.435617085569432,"vm":0.98946,"base_kv":20.0},"11":{"zone":1,"bus_i":11,"bus_type":1,"name":"LOAD 1011   ","vmax":1.1,"source_id":["bus",11],"area":1,"vmin":0.9,"index":11,"va":-1.2229539522016786,"vm":1.00111,"base_kv":20.0},"4032":{"zone":1,"bus_i":4032,"bus_type":1,"name":"4032        ","vmax":1.1,"source_id":["bus",4032],"area":1,"vmin":0.9,"index":4032,"va":-1.8019983474773333,"vm":1.02359,"base_kv":400.0},"13":{"zone":1,"bus_i":13,"bus_type":1,"name":"LOAD 1013   ","vmax":1.1,"source_id":["bus",13],"area":1,"vmin":0.9,"index":13,"va":-1.087464042369359,"vm":0.99623,"base_kv":20.0},"1011":{"zone":1,"bus_i":1011,"bus_type":1,"name":"1011        ","vmax":1.1,"source_id":["bus",1011],"area":1,"vmin":0.9,"index":1011,"va":-1.1740149199757577,"vm":1.06024,"base_kv":130.0},"61":{"zone":1,"bus_i":61,"bus_type":1,"name":"LOAD 4061   ","vmax":1.1,"source_id":["bus",61],"area":3,"vmin":0.9,"index":61,"va":-2.20931456166151,"vm":0.97962,"base_kv":20.0},"50001":{"zone":1,"bus_i":50001,"bus_type":2,"name":"G1          ","vmax":1.1,"source_id":["bus",50001],"area":1,"vmin":0.9,"index":50001,"va":-1.014500552989736,"vm":1.07002,"base_kv":15.0},"1045":{"zone":1,"bus_i":1045,"bus_type":1,"name":"1045        ","vmax":1.1,"source_id":["bus",1045],"area":2,"vmin":0.9,"index":1045,"va":-2.4520078301390775,"vm":0.98789,"base_kv":130.0},"4042":{"converter_sw1":{"2":0.0},"zone":1,"converter_sw3":{"2":0.0},"bus_i":4042,"bus_type":1,"name":"4042        ","converter_sw2":{"2":0.0},"converter_index":[[2,1,4042]],"converter_c2":{"2":0.0},"converter_vmax":{"2":1.1},"vmax":1.1,"source_id":["bus",4042],"area":2,"converter_c3":{"2":0.0},"vmin":0.9,"index":4042,"va":-2.154622924221016,"converter_M":{"2":0.9},"vm":1.00838,"converter_imax":{"2":40.0},"base_kv":400.0,"converter_c1":{"2":0.0}},"1022":{"zone":1,"bus_i":1022,"bus_type":1,"name":"1022        ","vmax":1.1,"source_id":["bus",1022],"area":1,"vmin":0.9,"index":1022,"va":-1.3856046758535343,"vm":1.04517,"base_kv":130.0},"46":{"zone":1,"bus_i":46,"bus_type":1,"name":"LOAD 4046   ","vmax":1.1,"source_id":["bus",46],"area":2,"vmin":0.9,"index":46,"va":-2.3529185071863514,"vm":0.97781,"base_kv":20.0},"72":{"zone":1,"bus_i":72,"bus_type":1,"name":"LOAD 4072   ","vmax":1.1,"source_id":["bus",72],"area":4,"vmin":0.9,"index":72,"va":-1.1814604945647655,"vm":0.99828,"base_kv":20.0},"50003":{"zone":1,"bus_i":50003,"bus_type":2,"name":"G3          ","vmax":1.1,"source_id":["bus",50003],"area":1,"vmin":0.9,"index":50003,"va":-0.8822063410178178,"vm":1.06106,"base_kv":15.0},"50010":{"zone":1,"bus_i":50010,"bus_type":2,"name":"G10         ","vmax":1.1,"source_id":["bus",50010],"area":1,"vmin":0.9,"index":50010,"va":-1.0418184464419513,"vm":1.01725,"base_kv":15.0},"50016":{"zone":1,"bus_i":50016,"bus_type":2,"name":"G16         ","vmax":1.1,"source_id":["bus",50016],"area":2,"vmin":0.9,"index":50016,"va":-2.31923190729361,"vm":1.05563,"base_kv":15.0},"4041":{"zone":1,"bus_i":4041,"bus_type":1,"name":"4041        ","vmax":1.1,"source_id":["bus",4041],"area":2,"vmin":0.9,"index":4041,"va":-2.0700407780108665,"vm":1.01677,"base_kv":400.0},"1043":{"zone":1,"bus_i":1043,"bus_type":1,"name":"1043        ","vmax":1.1,"source_id":["bus",1043],"area":2,"vmin":0.9,"index":1043,"va":-2.546545334402602,"vm":1.00686,"base_kv":130.0},"2032":{"zone":1,"bus_i":2032,"bus_type":1,"name":"2032        ","vmax":1.1,"source_id":["bus",2032],"area":1,"vmin":0.9,"index":2032,"va":-1.4701466794908875,"vm":1.06601,"base_kv":220.0},"50019":{"zone":1,"bus_i":50019,"bus_type":2,"name":"G19         ","vmax":1.1,"source_id":["bus",50019],"area":4,"vmin":0.9,"index":50019,"va":-1.060949000373061,"vm":1.03117,"base_kv":15.0},"50006":{"zone":1,"bus_i":50006,"bus_type":2,"name":"G6          ","vmax":1.1,"source_id":["bus",50006],"area":2,"vmin":0.9,"index":50006,"va":-2.239156201212109,"vm":1.01131,"base_kv":15.0},"50007":{"zone":1,"bus_i":50007,"bus_type":2,"name":"G7          ","vmax":1.1,"source_id":["bus",50007],"area":2,"vmin":0.9,"index":50007,"va":-2.408109308792916,"vm":1.01643,"base_kv":15.0},"3":{"zone":1,"bus_i":3,"bus_type":1,"name":"LOAD 1043   ","vmax":1.1,"source_id":["bus",3],"area":2,"vmin":0.9,"index":3,"va":-2.6034203787373413,"vm":0.97738,"base_kv":20.0}},"source_type":"matpower","name":"fault_4032_4044_1_original_10","dcline":{},"source_version":"2","gen":{"4":{"ncost":3,"qc1max":0.0,"pg":3.92999,"model":2,"shutdown":0.0,"startup":0.0,"qc2max":0.0,"ramp_agc":0.0,"qg":0.3468,"gen_bus":50004,"pmax":5.7,"ramp_10":0.0,"vg":1.0339,"mbase":600.0,"source_id":["gen",4],"mu_pmax":0.0,"pc2":0.0,"mu_pmin":0.0,"index":4,"cost":[10.0,1000.0,0.0],"qmax":1.8735,"gen_status":1,"qmin":-1.8735,"qc1min":0.0,"qc2min":0.0,"pc1":0.0,"ramp_q":0.0,"mu_qmax":0.0,"ramp_30":0.0,"mu_qmin":0.0,"pmin":0.0,"apf":0.0},"1":{"ncost":3,"qc1max":0.0,"pg":5.9422500000000005,"model":2,"shutdown":0.0,"startup":0.0,"qc2max":0.0,"ramp_agc":0.0,"qg":0.67227,"gen_bus":50001,"pmax":7.6,"ramp_10":0.0,"vg":1.0684,"mbase":800.0,"source_id":["gen",1],"mu_pmax":0.0,"pc2":0.0,"mu_pmin":0.0,"index":1,"cost":[10.0,1000.0,0.0],"qmax":2.498,"gen_status":1,"qmin":-2.498,"qc1min":0.0,"qc2min":0.0,"pc1":0.0,"ramp_q":0.0,"mu_qmax":0.0,"ramp_30":0.0,"mu_qmin":0.0,"pmin":0.0,"apf":0.0},"12":{"ncost":3,"qc1max":0.0,"pg":3.0664999999999996,"model":2,"shutdown":0.0,"startup":0.0,"qc2max":0.0,"ramp_agc":0.0,"qg":1.50906,"gen_bus":50012,"pmax":3.325,"ramp_10":0.0,"vg":1.02,"mbase":350.0,"source_id":["gen",12],"mu_pmax":0.0,"pc2":0.0,"mu_pmin":0.0,"index":12,"cost":[10.0,1000.0,0.0],"qmax":1.09287,"gen_status":1,"qmin":-1.09287,"qc1min":0.0,"qc2min":0.0,"pc1":0.0,"ramp_q":0.0,"mu_qmax":0.0,"ramp_30":0.0,"mu_qmin":0.0,"pmin":0.0,"apf":0.0},"20":{"ncost":3,"qc1max":0.0,"pg":21.28315,"model":2,"shutdown":0.0,"startup":0.0,"qc2max":0.0,"ramp_agc":0.0,"qg":3.81697,"gen_bus":50020,"pmax":42.75,"ramp_10":0.0,"vg":1.0185,"mbase":4500.0,"source_id":["gen",20],"mu_pmax":0.0,"pc2":0.0,"mu_pmin":0.0,"index":20,"cost":[10.0,1000.0,0.0],"qmax":14.05125,"gen_status":1,"qmin":-14.05125,"qc1min":0.0,"qc2min":0.0,"pc1":0.0,"ramp_q":0.0,"mu_qmax":0.0,"ramp_30":0.0,"mu_qmin":0.0,"pmin":0.0,"apf":0.0},"2":{"ncost":3,"qc1max":0.0,"pg":2.95716,"model":2,"shutdown":0.0,"startup":0.0,"qc2max":0.0,"ramp_agc":0.0,"qg":0.21017,"gen_bus":50002,"pmax":5.7,"ramp_10":0.0,"vg":1.0565,"mbase":600.0,"source_id":["gen",2],"mu_pmax":0.0,"pc2":0.0,"mu_pmin":0.0,"index":2,"cost":[10.0,1000.0,0.0],"qmax":1.8735,"gen_status":1,"qmin":-1.8735,"qc1min":0.0,"qc2min":0.0,"pc1":0.0,"ramp_q":0.0,"mu_qmax":0.0,"ramp_30":0.0,"mu_qmin":0.0,"pmin":0.0,"apf":0.0},"6":{"ncost":3,"qc1max":0.0,"pg":3.60522,"model":2,"shutdown":0.0,"startup":0.0,"qc2max":0.0,"ramp_agc":0.0,"qg":1.61809,"gen_bus":50006,"pmax":3.6,"ramp_10":0.0,"vg":1.0084,"mbase":400.0,"source_id":["gen",6],"mu_pmax":0.0,"pc2":0.0,"mu_pmin":0.0,"index":6,"cost":[1000.0,100000.0,0.0],"qmax":1.74356,"gen_status":1,"qmin":-1.249,"qc1min":0.0,"qc2min":0.0,"pc1":0.0,"ramp_q":0.0,"mu_qmax":0.0,"ramp_30":0.0,"mu_qmin":0.0,"pmin":0.0,"apf":0.0},"11":{"ncost":3,"qc1max":0.0,"pg":2.47268,"model":2,"shutdown":0.0,"startup":0.0,"qc2max":0.0,"ramp_agc":0.0,"qg":1.04877,"gen_bus":50011,"pmax":2.85,"ramp_10":0.0,"vg":1.0211,"mbase":300.0,"source_id":["gen",11],"mu_pmax":0.0,"pc2":0.0,"mu_pmin":0.0,"index":11,"cost":[10.0,1000.0,0.0],"qmax":0.93675,"gen_status":1,"qmin":-0.93675,"qc1min":0.0,"qc2min":0.0,"pc1":0.0,"ramp_q":0.0,"mu_qmax":0.0,"ramp_30":0.0,"mu_qmin":0.0,"pmin":0.0,"apf":0.0},"13":{"ncost":3,"qc1max":0.0,"pg":-0.00068,"model":2,"shutdown":0.0,"startup":0.0,"qc2max":0.0,"ramp_agc":0.0,"qg":1.3207,"gen_bus":50013,"pmax":0.0,"ramp_10":0.0,"vg":1.017,"mbase":300.0,"source_id":["gen",13],"mu_pmax":0.0,"pc2":0.0,"mu_pmin":0.0,"index":13,"cost":[1000.0,100000.0,0.0],"qmax":3.0,"gen_status":1,"qmin":-2.0,"qc1min":0.0,"qc2min":0.0,"pc1":0.0,"ramp_q":0.0,"mu_qmax":0.0,"ramp_30":0.0,"mu_qmin":0.0,"pmin":0.0,"apf":0.0},"5":{"ncost":3,"qc1max":0.0,"pg":1.97685,"model":2,"shutdown":0.0,"startup":0.0,"qc2max":0.0,"ramp_agc":0.0,"qg":0.73187,"gen_bus":50005,"pmax":2.375,"ramp_10":0.0,"vg":1.0294,"mbase":250.0,"source_id":["gen",5],"mu_pmax":0.0,"pc2":0.0,"mu_pmin":0.0,"index":5,"cost":[10.0,1000.0,0.0],"qmax":0.78062,"gen_status":1,"qmin":-0.78062,"qc1min":0.0,"qc2min":0.0,"pc1":0.0,"ramp_q":0.0,"mu_qmax":0.0,"ramp_30":0.0,"mu_qmin":0.0,"pmin":0.0,"apf":0.0},"15":{"ncost":3,"qc1max":0.0,"pg":10.75548,"model":2,"shutdown":0.0,"startup":0.0,"qc2max":0.0,"ramp_agc":0.0,"qg":5.11038,"gen_bus":50015,"pmax":10.8,"ramp_10":0.0,"vg":1.0455,"mbase":1200.0,"source_id":["gen",15],"mu_pmax":0.0,"pc2":0.0,"mu_pmin":0.0,"index":15,"cost":[1000.0,100000.0,0.0],"qmax":5.2306799999999996,"gen_status":1,"qmin":-3.747,"qc1min":0.0,"qc2min":0.0,"pc1":0.0,"ramp_q":0.0,"mu_qmax":0.0,"ramp_30":0.0,"mu_qmin":0.0,"pmin":0.0,"apf":0.0},"16":{"ncost":3,"qc1max":0.0,"pg":5.981509999999999,"model":2,"shutdown":0.0,"startup":0.0,"qc2max":0.0,"ramp_agc":0.0,"qg":2.91966,"gen_bus":50016,"pmax":6.3,"ramp_10":0.0,"vg":1.0531,"mbase":700.0,"source_id":["gen",16],"mu_pmax":0.0,"pc2":0.0,"mu_pmin":0.0,"index":16,"cost":[1000.0,100000.0,0.0],"qmax":3.05123,"gen_status":1,"qmin":-2.18575,"qc1min":0.0,"qc2min":0.0,"pc1":0.0,"ramp_q":0.0,"mu_qmax":0.0,"ramp_30":0.0,"mu_qmin":0.0,"pmin":0.0,"apf":0.0},"14":{"ncost":3,"qc1max":0.0,"pg":6.271380000000001,"model":2,"shutdown":0.0,"startup":0.0,"qc2max":0.0,"ramp_agc":0.0,"qg":4.58768,"gen_bus":50014,"pmax":6.3,"ramp_10":0.0,"vg":1.0454,"mbase":700.0,"source_id":["gen",14],"mu_pmax":0.0,"pc2":0.0,"mu_pmin":0.0,"index":14,"cost":[1000.0,100000.0,0.0],"qmax":3.05123,"gen_status":1,"qmin":-2.18575,"qc1min":0.0,"qc2min":0.0,"pc1":0.0,"ramp_q":0.0,"mu_qmax":0.0,"ramp_30":0.0,"mu_qmin":0.0,"pmin":0.0,"apf":0.0},"7":{"ncost":3,"qc1max":0.0,"pg":1.79337,"model":2,"shutdown":0.0,"startup":0.0,"qc2max":0.0,"ramp_agc":0.0,"qg":0.90377,"gen_bus":50007,"pmax":1.8,"ramp_10":0.0,"vg":1.0141,"mbase":200.0,"source_id":["gen",7],"mu_pmax":0.0,"pc2":0.0,"mu_pmin":0.0,"index":7,"cost":[1000.0,100000.0,0.0],"qmax":0.87178,"gen_status":1,"qmin":-0.6245,"qc1min":0.0,"qc2min":0.0,"pc1":0.0,"ramp_q":0.0,"mu_qmax":0.0,"ramp_30":0.0,"mu_qmin":0.0,"pmin":0.0,"apf":0.0},"8":{"ncost":3,"qc1max":0.0,"pg":7.41153,"model":2,"shutdown":0.0,"startup":0.0,"qc2max":0.0,"ramp_agc":0.0,"qg":2.66551,"gen_bus":50008,"pmax":8.075,"ramp_10":0.0,"vg":1.0498,"mbase":850.0,"source_id":["gen",8],"mu_pmax":0.0,"pc2":0.0,"mu_pmin":0.0,"index":8,"cost":[10.0,1000.0,0.0],"qmax":2.65412,"gen_status":1,"qmin":-2.65412,"qc1min":0.0,"qc2min":0.0,"pc1":0.0,"ramp_q":0.0,"mu_qmax":0.0,"ramp_30":0.0,"mu_qmin":0.0,"pmin":0.0,"apf":0.0},"17":{"ncost":3,"qc1max":0.0,"pg":5.2793600000000005,"model":2,"shutdown":0.0,"startup":0.0,"qc2max":0.0,"ramp_agc":0.0,"qg":0.88577,"gen_bus":50017,"pmax":5.4,"ramp_10":0.0,"vg":1.0092,"mbase":600.0,"source_id":["gen",17],"mu_pmax":0.0,"pc2":0.0,"mu_pmin":0.0,"index":17,"cost":[1000.0,100000.0,0.0],"qmax":2.6153399999999998,"gen_status":1,"qmin":-1.8735,"qc1min":0.0,"qc2min":0.0,"pc1":0.0,"ramp_q":0.0,"mu_qmax":0.0,"ramp_30":0.0,"mu_qmin":0.0,"pmin":0.0,"apf":0.0},"10":{"ncost":3,"qc1max":0.0,"pg":5.942340000000001,"model":2,"shutdown":0.0,"startup":0.0,"qc2max":0.0,"ramp_agc":0.0,"qg":2.6905099999999997,"gen_bus":50010,"pmax":7.6,"ramp_10":0.0,"vg":1.0157,"mbase":800.0,"source_id":["gen",10],"mu_pmax":0.0,"pc2":0.0,"mu_pmin":0.0,"index":10,"cost":[10.0,1000.0,0.0],"qmax":2.498,"gen_status":1,"qmin":-2.498,"qc1min":0.0,"qc2min":0.0,"pc1":0.0,"ramp_q":0.0,"mu_qmax":0.0,"ramp_30":0.0,"mu_qmin":0.0,"pmin":0.0,"apf":0.0},"19":{"ncost":3,"qc1max":0.0,"pg":2.98243,"model":2,"shutdown":0.0,"startup":0.0,"qc2max":0.0,"ramp_agc":0.0,"qg":1.24309,"gen_bus":50019,"pmax":4.75,"ramp_10":0.0,"vg":1.03,"mbase":500.0,"source_id":["gen",19],"mu_pmax":0.0,"pc2":0.0,"mu_pmin":0.0,"index":19,"cost":[10.0,1000.0,0.0],"qmax":1.56125,"gen_status":1,"qmin":-1.56125,"qc1min":0.0,"qc2min":0.0,"pc1":0.0,"ramp_q":0.0,"mu_qmax":0.0,"ramp_30":0.0,"mu_qmin":0.0,"pmin":0.0,"apf":0.0},"9":{"ncost":3,"qc1max":0.0,"pg":6.61239,"model":2,"shutdown":0.0,"startup":0.0,"qc2max":0.0,"ramp_agc":0.0,"qg":2.23433,"gen_bus":50009,"pmax":9.5,"ramp_10":0.0,"vg":0.9988,"mbase":1000.0,"source_id":["gen",9],"mu_pmax":0.0,"pc2":0.0,"mu_pmin":0.0,"index":9,"cost":[10.0,1000.0,0.0],"qmax":3.1225,"gen_status":1,"qmin":-3.1225,"qc1min":0.0,"qc2min":0.0,"pc1":0.0,"ramp_q":0.0,"mu_qmax":0.0,"ramp_30":0.0,"mu_qmin":0.0,"pmin":0.0,"apf":0.0},"18":{"ncost":3,"qc1max":0.0,"pg":10.56356,"model":2,"shutdown":0.0,"startup":0.0,"qc2max":0.0,"ramp_agc":0.0,"qg":3.32769,"gen_bus":50018,"pmax":10.8,"ramp_10":0.0,"vg":1.0307,"mbase":1200.0,"source_id":["gen",18],"mu_pmax":0.0,"pc2":0.0,"mu_pmin":0.0,"index":18,"cost":[1000.0,100000.0,0.0],"qmax":5.2306799999999996,"gen_status":1,"qmin":-3.747,"qc1min":0.0,"qc2min":0.0,"pc1":0.0,"ramp_q":0.0,"mu_qmax":0.0,"ramp_30":0.0,"mu_qmin":0.0,"pmin":0.0,"apf":0.0},"3":{"ncost":3,"qc1max":0.0,"pg":5.449120000000001,"model":2,"shutdown":0.0,"startup":0.0,"qc2max":0.0,"ramp_agc":0.0,"qg":0.23597,"gen_bus":50003,"pmax":6.65,"ramp_10":0.0,"vg":1.0595,"mbase":700.0,"source_id":["gen",3],"mu_pmax":0.0,"pc2":0.0,"mu_pmin":0.0,"index":3,"cost":[10.0,1000.0,0.0],"qmax":2.18575,"gen_status":1,"qmin":-2.18575,"qc1min":0.0,"qc2min":0.0,"pc1":0.0,"ramp_q":0.0,"mu_qmax":0.0,"ramp_30":0.0,"mu_qmin":0.0,"pmin":0.0,"apf":0.0}},"branch":{"32":{"br_r":0.006,"rate_a":14.0,"shift":0.0,"rate_b":14.0,"br_x":0.08,"rate_c":14.0,"g_to":0.0,"g_fr":0.0,"source_id":["branch",32],"b_fr":1.19883,"f_bus":4031,"br_status":1,"t_bus":4041,"b_to":1.19883,"index":32,"angmin":-0.6981317007977318,"angmax":0.6981317007977318,"transformer":false,"tap":1.0},"29":{"br_r":0.004,"rate_a":14.0,"shift":0.0,"rate_b":14.0,"br_x":0.04,"rate_c":14.0,"g_to":0.0,"g_fr":0.0,"source_id":["branch",29],"b_fr":0.60067,"f_bus":4022,"br_status":1,"t_bus":4031,"b_to":0.60067,"index":29,"angmin":-0.6981317007977318,"angmax":0.6981317007977318,"transformer":false,"tap":1.0},"1":{"br_r":0.01,"rate_a":3.5,"shift":0.0,"rate_b":3.5,"br_x":0.07,"rate_c":3.5,"g_to":0.0,"g_fr":0.0,"source_id":["branch",1],"b_fr":0.0069,"f_bus":1011,"br_status":1,"t_bus":1013,"b_to":0.0069,"index":1,"angmin":-0.6981317007977318,"angmax":0.6981317007977318,"transformer":false,"tap":1.0},"54":{"br_r":0.0,"rate_a":6.0,"shift":0.0,"rate_b":6.0,"br_x":0.0166666667,"rate_c":6.0,"g_to":0.0,"g_fr":0.0,"source_id":["branch",54],"b_fr":0.0,"f_bus":1042,"br_status":1,"t_bus":2,"b_to":0.0,"index":54,"angmin":-0.6981317007977318,"angmax":0.6981317007977318,"transformer":true,"tap":1.0},"78":{"br_r":0.0,"rate_a":6.0,"shift":0.0,"rate_b":6.0,"br_x":0.025,"rate_c":6.0,"g_to":0.0,"g_fr":0.0,"source_id":["branch",78],"b_fr":0.0,"f_bus":1013,"br_status":1,"t_bus":50002,"b_to":0.0,"index":78,"angmin":-0.6981317007977318,"angmax":0.6981317007977318,"transformer":true,"tap":1.0},"81":{"br_r":0.0,"rate_a":8.333,"shift":0.0,"rate_b":8.333,"br_x":0.01200048,"rate_c":8.333,"g_to":0.0,"g_fr":0.0,"source_id":["branch",81],"b_fr":0.0,"f_bus":4022,"br_status":1,"t_bus":1022,"b_to":0.0,"index":81,"angmin":-0.6981317007977318,"angmax":0.6981317007977318,"transformer":true,"tap":0.93},"101":{"br_r":0.0,"rate_a":5.0,"shift":0.0,"rate_b":5.0,"br_x":0.03,"rate_c":5.0,"g_to":0.0,"g_fr":0.0,"source_id":["branch",101],"b_fr":0.0,"f_bus":4071,"br_status":1,"t_bus":50019,"b_to":0.0,"index":101,"angmin":-0.6981317007977318,"angmax":0.6981317007977318,"transformer":true,"tap":1.05},"2":{"br_r":0.01,"rate_a":3.5,"shift":0.0,"rate_b":3.5,"br_x":0.07,"rate_c":3.5,"g_to":0.0,"g_fr":0.0,"source_id":["branch",2],"b_fr":0.0069,"f_bus":1011,"br_status":1,"t_bus":1013,"b_to":0.0069,"index":2,"angmin":-0.6981317007977318,"angmax":0.6981317007977318,"transformer":false,"tap":1.0},"74":{"br_r":0.0,"rate_a":40.0,"shift":0.0,"rate_b":40.0,"br_x":0.0025,"rate_c":40.0,"g_to":0.0,"g_fr":0.0,"source_id":["branch",74],"b_fr":0.0,"f_bus":4072,"br_status":1,"t_bus":72,"b_to":0.0,"index":74,"angmin":-0.6981317007977318,"angmax":0.6981317007977318,"transformer":true,"tap":1.05},"41":{"br_r":0.002,"rate_a":14.0,"shift":0.0,"rate_b":14.0,"br_x":0.02,"rate_c":14.0,"g_to":0.0,"g_fr":0.0,"source_id":["branch",41],"b_fr":0.29909,"f_bus":4043,"br_status":1,"t_bus":4047,"b_to":0.29909,"index":41,"angmin":-0.6981317007977318,"angmax":0.6981317007977318,"transformer":false,"tap":1.0},"65":{"br_r":0.0,"rate_a":8.0,"shift":0.0,"rate_b":8.0,"br_x":0.0125,"rate_c":8.0,"g_to":0.0,"g_fr":0.0,"source_id":["branch",65],"b_fr":0.0,"f_bus":4042,"br_status":1,"t_bus":42,"b_to":0.0,"index":65,"angmin":-0.6981317007977318,"angmax":0.6981317007977318,"transformer":true,"tap":1.03},"51":{"br_r":0.003,"rate_a":14.0,"shift":0.0,"rate_b":14.0,"br_x":0.03,"rate_c":14.0,"g_to":0.0,"g_fr":0.0,"source_id":["branch",51],"b_fr":1.50043,"f_bus":4071,"br_status":1,"t_bus":4072,"b_to":1.50043,"index":51,"angmin":-0.6981317007977318,"angmax":0.6981317007977318,"transformer":false,"tap":1.0},"53":{"br_r":0.0,"rate_a":12.0,"shift":0.0,"rate_b":12.0,"br_x":0.00833333333,"rate_c":12.0,"g_to":0.0,"g_fr":0.0,"source_id":["branch",53],"b_fr":0.0,"f_bus":1041,"br_status":1,"t_bus":1,"b_to":0.0,"index":53,"angmin":-0.6981317007977318,"angmax":0.6981317007977318,"transformer":true,"tap":1.0},"27":{"br_r":0.01,"rate_a":14.0,"shift":0.0,"rate_b":14.0,"br_x":0.1,"rate_c":14.0,"g_to":0.0,"g_fr":0.0,"source_id":["branch",27],"b_fr":1.50043,"f_bus":4021,"br_status":0,"t_bus":4042,"b_to":1.50043,"index":27,"angmin":-0.6981317007977318,"angmax":0.6981317007977318,"transformer":false,"tap":1.0},"75":{"br_r":0.0,"rate_a":12.5,"shift":0.0,"rate_b":12.5,"br_x":0.008,"rate_c":12.5,"g_to":0.0,"g_fr":0.0,"source_id":["branch",75],"b_fr":0.0,"f_bus":4011,"br_status":1,"t_bus":1011,"b_to":0.0,"index":75,"angmin":-0.6981317007977318,"angmax":0.6981317007977318,"transformer":true,"tap":0.95},"42":{"br_r":0.002,"rate_a":14.0,"shift":0.0,"rate_b":14.0,"br_x":0.02,"rate_c":14.0,"g_to":0.0,"g_fr":0.0,"source_id":["branch",42],"b_fr":0.29909,"f_bus":4044,"br_status":1,"t_bus":4045,"b_to":0.29909,"index":42,"angmin":-0.6981317007977318,"angmax":0.6981317007977318,"transformer":false,"tap":1.0},"33":{"br_r":0.01,"rate_a":14.0,"shift":0.0,"rate_b":14.0,"br_x":0.066667,"rate_c":14.0,"g_to":0.0,"g_fr":0.0,"source_id":["branch",33],"b_fr":1.00029,"f_bus":4032,"br_status":1,"t_bus":4042,"b_to":1.00029,"index":33,"angmin":-0.6981317007977318,"angmax":0.6981317007977318,"transformer":false,"tap":1.0},"28":{"br_r":0.004,"rate_a":14.0,"shift":0.0,"rate_b":14.0,"br_x":0.04,"rate_c":14.0,"g_to":0.0,"g_fr":0.0,"source_id":["branch",28],"b_fr":0.60067,"f_bus":4022,"br_status":1,"t_bus":4031,"b_to":0.60067,"index":28,"angmin":-0.6981317007977318,"angmax":0.6981317007977318,"transformer":false,"tap":1.0},"50":{"br_r":0.003,"rate_a":14.0,"shift":0.0,"rate_b":14.0,"br_x":0.03,"rate_c":14.0,"g_to":0.0,"g_fr":0.0,"source_id":["branch",50],"b_fr":0.44987,"f_bus":4062,"br_status":1,"t_bus":4063,"b_to":0.44987,"index":50,"angmin":-0.6981317007977318,"angmax":0.6981317007977318,"transformer":false,"tap":1.0},"52":{"br_r":0.003,"rate_a":14.0,"shift":0.0,"rate_b":14.0,"br_x":0.03,"rate_c":14.0,"g_to":0.0,"g_fr":0.0,"source_id":["branch",52],"b_fr":1.50043,"f_bus":4071,"br_status":1,"t_bus":4072,"b_to":1.50043,"index":52,"angmin":-0.6981317007977318,"angmax":0.6981317007977318,"transformer":false,"tap":1.0},"63":{"br_r":0.0,"rate_a":4.0,"shift":0.0,"rate_b":4.0,"br_x":0.025,"rate_c":4.0,"g_to":0.0,"g_fr":0.0,"source_id":["branch",63],"b_fr":0.0,"f_bus":2032,"br_status":1,"t_bus":32,"b_to":0.0,"index":63,"angmin":-0.6981317007977318,"angmax":0.6981317007977318,"transformer":true,"tap":1.06},"92":{"br_r":0.0,"rate_a":8.0,"shift":0.0,"rate_b":8.0,"br_x":0.01875,"rate_c":8.0,"g_to":0.0,"g_fr":0.0,"source_id":["branch",92],"b_fr":0.0,"f_bus":4012,"br_status":1,"t_bus":50010,"b_to":0.0,"index":92,"angmin":-0.6981317007977318,"angmax":0.6981317007977318,"transformer":true,"tap":1.05},"88":{"br_r":0.0,"rate_a":10.0,"shift":0.0,"rate_b":10.0,"br_x":0.01,"rate_c":10.0,"g_to":0.0,"g_fr":0.0,"source_id":["branch",88],"b_fr":0.0,"f_bus":4045,"br_status":1,"t_bus":1045,"b_to":0.0,"index":88,"angmin":-0.6981317007977318,"angmax":0.6981317007977318,"transformer":true,"tap":1.04},"93":{"br_r":0.0,"rate_a":3.0,"shift":0.0,"rate_b":3.0,"br_x":0.05,"rate_c":3.0,"g_to":0.0,"g_fr":0.0,"source_id":["branch",93],"b_fr":0.0,"f_bus":4021,"br_status":1,"t_bus":50011,"b_to":0.0,"index":93,"angmin":-0.6981317007977318,"angmax":0.6981317007977318,"transformer":true,"tap":1.05},"26":{"br_r":0.004,"rate_a":14.0,"shift":0.0,"rate_b":14.0,"br_x":0.04,"rate_c":14.0,"g_to":0.0,"g_fr":0.0,"source_id":["branch",26],"b_fr":0.60067,"f_bus":4021,"br_status":1,"t_bus":4032,"b_to":0.60067,"index":26,"angmin":-0.6981317007977318,"angmax":0.6981317007977318,"transformer":false,"tap":1.0},"10":{"br_r":0.01,"rate_a":3.5,"shift":0.0,"rate_b":3.5,"br_x":0.06,"rate_c":3.5,"g_to":0.0,"g_fr":0.0,"source_id":["branch",10],"b_fr":0.006105,"f_bus":1041,"br_status":1,"t_bus":1043,"b_to":0.006105,"index":10,"angmin":-0.6981317007977318,"angmax":0.6981317007977318,"transformer":false,"tap":1.0},"77":{"br_r":0.0,"rate_a":8.0,"shift":0.0,"rate_b":8.0,"br_x":0.01875,"rate_c":8.0,"g_to":0.0,"g_fr":0.0,"source_id":["branch",77],"b_fr":0.0,"f_bus":1012,"br_status":1,"t_bus":50001,"b_to":0.0,"index":77,"angmin":-0.6981317007977318,"angmax":0.6981317007977318,"transformer":true,"tap":1.0},"24":{"br_r":0.004,"rate_a":14.0,"shift":0.0,"rate_b":14.0,"br_x":0.035,"rate_c":14.0,"g_to":0.0,"g_fr":0.0,"source_id":["branch",24],"b_fr":0.52528,"f_bus":4012,"br_status":1,"t_bus":4022,"b_to":0.52528,"index":24,"angmin":-0.6981317007977318,"angmax":0.6981317007977318,"transformer":false,"tap":1.0},"87":{"br_r":0.0,"rate_a":10.0,"shift":0.0,"rate_b":10.0,"br_x":0.01,"rate_c":10.0,"g_to":0.0,"g_fr":0.0,"source_id":["branch",87],"b_fr":0.0,"f_bus":4045,"br_status":1,"t_bus":1045,"b_to":0.0,"index":87,"angmin":-0.6981317007977318,"angmax":0.6981317007977318,"transformer":true,"tap":1.04},"58":{"br_r":0.0,"rate_a":4.0,"shift":0.0,"rate_b":4.0,"br_x":0.025,"rate_c":4.0,"g_to":0.0,"g_fr":0.0,"source_id":["branch",58],"b_fr":0.0,"f_bus":1011,"br_status":1,"t_bus":11,"b_to":0.0,"index":58,"angmin":-0.6981317007977318,"angmax":0.6981317007977318,"transformer":true,"tap":1.04},"25":{"br_r":0.005,"rate_a":14.0,"shift":0.0,"rate_b":14.0,"br_x":0.05,"rate_c":14.0,"g_to":0.0,"g_fr":0.0,"source_id":["branch",25],"b_fr":0.74896,"f_bus":4012,"br_status":1,"t_bus":4071,"b_to":0.74896,"index":25,"angmin":-0.6981317007977318,"angmax":0.6981317007977318,"transformer":false,"tap":1.0},"23":{"br_r":0.005,"rate_a":14.0,"shift":0.0,"rate_b":14.0,"br_x":0.045,"rate_c":14.0,"g_to":0.0,"g_fr":0.0,"source_id":["branch",23],"b_fr":0.7012,"f_bus":4011,"br_status":1,"t_bus":4071,"b_to":0.7012,"index":23,"angmin":-0.6981317007977318,"angmax":0.6981317007977318,"transformer":false,"tap":1.0},"49":{"br_r":0.003,"rate_a":14.0,"shift":0.0,"rate_b":14.0,"br_x":0.03,"rate_c":14.0,"g_to":0.0,"g_fr":0.0,"source_id":["branch",49],"b_fr":0.44987,"f_bus":4062,"br_status":1,"t_bus":4063,"b_to":0.44987,"index":49,"angmin":-0.6981317007977318,"angmax":0.6981317007977318,"transformer":false,"tap":1.0},"59":{"br_r":0.0,"rate_a":6.0,"shift":0.0,"rate_b":6.0,"br_x":0.0166666667,"rate_c":6.0,"g_to":0.0,"g_fr":0.0,"source_id":["branch",59],"b_fr":0.0,"f_bus":1012,"br_status":1,"t_bus":12,"b_to":0.0,"index":59,"angmin":-0.6981317007977318,"angmax":0.6981317007977318,"transformer":true,"tap":1.05},"5":{"br_r":0.00698225,"rate_a":3.5,"shift":0.0,"rate_b":3.5,"br_x":0.05,"rate_c":3.5,"g_to":0.0,"g_fr":0.0,"source_id":["branch",5],"b_fr":0.005045,"f_bus":1013,"br_status":1,"t_bus":1014,"b_to":0.005045,"index":5,"angmin":-0.6981317007977318,"angmax":0.6981317007977318,"transformer":false,"tap":1.0},"31":{"br_r":0.006,"rate_a":14.0,"shift":0.0,"rate_b":14.0,"br_x":0.08,"rate_c":14.0,"g_to":0.0,"g_fr":0.0,"source_id":["branch",31],"b_fr":1.19883,"f_bus":4031,"br_status":1,"t_bus":4041,"b_to":1.19883,"index":31,"angmin":-0.6981317007977318,"angmax":0.6981317007977318,"transformer":false,"tap":1.0},"89":{"br_r":0.0,"rate_a":8.333,"shift":0.0,"rate_b":8.333,"br_x":0.01200048,"rate_c":8.333,"g_to":0.0,"g_fr":0.0,"source_id":["branch",89],"b_fr":0.0,"f_bus":4031,"br_status":1,"t_bus":2031,"b_to":0.0,"index":89,"angmin":-0.6981317007977318,"angmax":0.6981317007977318,"transformer":true,"tap":1.0},"62":{"br_r":0.0,"rate_a":2.0,"shift":0.0,"rate_b":2.0,"br_x":0.05,"rate_c":2.0,"g_to":0.0,"g_fr":0.0,"source_id":["branch",62],"b_fr":0.0,"f_bus":2031,"br_status":1,"t_bus":31,"b_to":0.0,"index":62,"angmin":-0.6981317007977318,"angmax":0.6981317007977318,"transformer":true,"tap":1.01},"43":{"br_r":0.002,"rate_a":14.0,"shift":0.0,"rate_b":14.0,"br_x":0.02,"rate_c":14.0,"g_to":0.0,"g_fr":0.0,"source_id":["branch",43],"b_fr":0.29909,"f_bus":4044,"br_status":1,"t_bus":4045,"b_to":0.29909,"index":43,"angmin":-0.6981317007977318,"angmax":0.6981317007977318,"transformer":false,"tap":1.0},"90":{"br_r":0.0,"rate_a":8.5,"shift":0.0,"rate_b":8.5,"br_x":0.0176470588,"rate_c":8.5,"g_to":0.0,"g_fr":0.0,"source_id":["branch",90],"b_fr":0.0,"f_bus":2032,"br_status":1,"t_bus":50008,"b_to":0.0,"index":90,"angmin":-0.6981317007977318,"angmax":0.6981317007977318,"transformer":true,"tap":1.05},"39":{"br_r":0.001,"rate_a":14.0,"shift":0.0,"rate_b":14.0,"br_x":0.01,"rate_c":14.0,"g_to":0.0,"g_fr":0.0,"source_id":["branch",39],"b_fr":0.150795,"f_bus":4043,"br_status":1,"t_bus":4044,"b_to":0.150795,"index":39,"angmin":-0.6981317007977318,"angmax":0.6981317007977318,"transformer":false,"tap":1.0},"34":{"br_r":0.006,"rate_a":14.0,"shift":0.0,"rate_b":14.0,"br_x":0.08,"rate_c":14.0,"g_to":0.0,"g_fr":0.0,"source_id":["branch",34],"b_fr":1.19883,"f_bus":4032,"br_status":0,"t_bus":4044,"b_to":1.19883,"index":34,"angmin":-0.6981317007977318,"angmax":0.6981317007977318,"transformer":false,"tap":1.0},"44":{"br_r":0.004,"rate_a":14.0,"shift":0.0,"rate_b":14.0,"br_x":0.04,"rate_c":14.0,"g_to":0.0,"g_fr":0.0,"source_id":["branch",44],"b_fr":0.60067,"f_bus":4045,"br_status":1,"t_bus":4051,"b_to":0.60067,"index":44,"angmin":-0.6981317007977318,"angmax":0.6981317007977318,"transformer":false,"tap":1.0},"94":{"br_r":0.0,"rate_a":3.5,"shift":0.0,"rate_b":3.5,"br_x":0.0428571429,"rate_c":3.5,"g_to":0.0,"g_fr":0.0,"source_id":["branch",94],"b_fr":0.0,"f_bus":4031,"br_status":1,"t_bus":50012,"b_to":0.0,"index":94,"angmin":-0.6981317007977318,"angmax":0.6981317007977318,"transformer":true,"tap":1.05},"55":{"br_r":0.0,"rate_a":4.6,"shift":0.0,"rate_b":4.6,"br_x":0.0217391304,"rate_c":4.6,"g_to":0.0,"g_fr":0.0,"source_id":["branch",55],"b_fr":0.0,"f_bus":1043,"br_status":1,"t_bus":3,"b_to":0.0,"index":55,"angmin":-0.6981317007977318,"angmax":0.6981317007977318,"transformer":true,"tap":1.01},"86":{"br_r":0.0,"rate_a":10.0,"shift":0.0,"rate_b":10.0,"br_x":0.01,"rate_c":10.0,"g_to":0.0,"g_fr":0.0,"source_id":["branch",86],"b_fr":0.0,"f_bus":4044,"br_status":1,"t_bus":1044,"b_to":0.0,"index":86,"angmin":-0.6981317007977318,"angmax":0.6981317007977318,"transformer":true,"tap":1.03},"17":{"br_r":0.01,"rate_a":3.5,"shift":0.0,"rate_b":3.5,"br_x":0.08,"rate_c":3.5,"g_to":0.0,"g_fr":0.0,"source_id":["branch",17],"b_fr":0.007965,"f_bus":1043,"br_status":1,"t_bus":1044,"b_to":0.007965,"index":17,"angmin":-0.6981317007977318,"angmax":0.6981317007977318,"transformer":false,"tap":1.0},"99":{"br_r":0.0,"rate_a":6.0,"shift":0.0,"rate_b":6.0,"br_x":0.025,"rate_c":6.0,"g_to":0.0,"g_fr":0.0,"source_id":["branch",99],"b_fr":0.0,"f_bus":4062,"br_status":1,"t_bus":50017,"b_to":0.0,"index":99,"angmin":-0.6981317007977318,"angmax":0.6981317007977318,"transformer":true,"tap":1.05},"71":{"br_r":0.0,"rate_a":6.0,"shift":0.0,"rate_b":6.0,"br_x":0.0166666667,"rate_c":6.0,"g_to":0.0,"g_fr":0.0,"source_id":["branch",71],"b_fr":0.0,"f_bus":4062,"br_status":1,"t_bus":62,"b_to":0.0,"index":71,"angmin":-0.6981317007977318,"angmax":0.6981317007977318,"transformer":true,"tap":1.04},"37":{"br_r":0.002,"rate_a":14.0,"shift":0.0,"rate_b":14.0,"br_x":0.015,"rate_c":14.0,"g_to":0.0,"g_fr":0.0,"source_id":["branch",37],"b_fr":0.248815,"f_bus":4042,"br_status":1,"t_bus":4043,"b_to":0.248815,"index":37,"angmin":-0.6981317007977318,"angmax":0.6981317007977318,"transformer":false,"tap":1.0},"47":{"br_r":0.001,"rate_a":14.0,"shift":0.0,"rate_b":14.0,"br_x":0.015,"rate_c":14.0,"g_to":0.0,"g_fr":0.0,"source_id":["branch",47],"b_fr":0.248815,"f_bus":4046,"br_status":1,"t_bus":4047,"b_to":0.248815,"index":47,"angmin":-0.6981317007977318,"angmax":0.6981317007977318,"transformer":false,"tap":1.0},"9":{"br_r":0.01,"rate_a":3.5,"shift":0.0,"rate_b":3.5,"br_x":0.06,"rate_c":3.5,"g_to":0.0,"g_fr":0.0,"source_id":["branch",9],"b_fr":0.006105,"f_bus":1041,"br_status":1,"t_bus":1043,"b_to":0.006105,"index":9,"angmin":-0.6981317007977318,"angmax":0.6981317007977318,"transformer":false,"tap":1.0},"73":{"br_r":0.0,"rate_a":6.0,"shift":0.0,"rate_b":6.0,"br_x":0.0166666667,"rate_c":6.0,"g_to":0.0,"g_fr":0.0,"source_id":["branch",73],"b_fr":0.0,"f_bus":4071,"br_status":1,"t_bus":71,"b_to":0.0,"index":73,"angmin":-0.6981317007977318,"angmax":0.6981317007977318,"transformer":true,"tap":1.03},"82":{"br_r":0.0,"rate_a":2.5,"shift":0.0,"rate_b":2.5,"br_x":0.06,"rate_c":2.5,"g_to":0.0,"g_fr":0.0,"source_id":["branch",82],"b_fr":0.0,"f_bus":1022,"br_status":1,"t_bus":50005,"b_to":0.0,"index":82,"angmin":-0.6981317007977318,"angmax":0.6981317007977318,"transformer":true,"tap":1.05},"12":{"br_r":0.0149704,"rate_a":3.5,"shift":0.0,"rate_b":3.5,"br_x":0.12,"rate_c":3.5,"g_to":0.0,"g_fr":0.0,"source_id":["branch",12],"b_fr":0.012475,"f_bus":1041,"br_status":1,"t_bus":1045,"b_to":0.012475,"index":12,"angmin":-0.6981317007977318,"angmax":0.6981317007977318,"transformer":false,"tap":1.0},"79":{"br_r":0.0,"rate_a":7.0,"shift":0.0,"rate_b":7.0,"br_x":0.0214285714,"rate_c":7.0,"g_to":0.0,"g_fr":0.0,"source_id":["branch",79],"b_fr":0.0,"f_bus":1014,"br_status":1,"t_bus":50003,"b_to":0.0,"index":79,"angmin":-0.6981317007977318,"angmax":0.6981317007977318,"transformer":true,"tap":1.0},"20":{"br_r":0.001,"rate_a":14.0,"shift":0.0,"rate_b":14.0,"br_x":0.008,"rate_c":14.0,"g_to":0.0,"g_fr":0.0,"source_id":["branch",20],"b_fr":0.10053,"f_bus":4011,"br_status":1,"t_bus":4012,"b_to":0.10053,"index":20,"angmin":-0.6981317007977318,"angmax":0.6981317007977318,"transformer":false,"tap":1.0},"6":{"br_r":0.00698225,"rate_a":3.5,"shift":0.0,"rate_b":3.5,"br_x":0.05,"rate_c":3.5,"g_to":0.0,"g_fr":0.0,"source_id":["branch",6],"b_fr":0.005045,"f_bus":1013,"br_status":1,"t_bus":1014,"b_to":0.005045,"index":6,"angmin":-0.6981317007977318,"angmax":0.6981317007977318,"transformer":false,"tap":1.0},"84":{"br_r":0.0,"rate_a":2.0,"shift":0.0,"rate_b":2.0,"br_x":0.075,"rate_c":2.0,"g_to":0.0,"g_fr":0.0,"source_id":["branch",84],"b_fr":0.0,"f_bus":1043,"br_status":1,"t_bus":50007,"b_to":0.0,"index":84,"angmin":-0.6981317007977318,"angmax":0.6981317007977318,"transformer":true,"tap":1.05},"80":{"br_r":0.0,"rate_a":6.0,"shift":0.0,"rate_b":6.0,"br_x":0.025,"rate_c":6.0,"g_to":0.0,"g_fr":0.0,"source_id":["branch",80],"b_fr":0.0,"f_bus":1021,"br_status":1,"t_bus":50004,"b_to":0.0,"index":80,"angmin":-0.6981317007977318,"angmax":0.6981317007977318,"transformer":true,"tap":1.0},"98":{"br_r":0.0,"rate_a":7.0,"shift":0.0,"rate_b":7.0,"br_x":0.0214285714,"rate_c":7.0,"g_to":0.0,"g_fr":0.0,"source_id":["branch",98],"b_fr":0.0,"f_bus":4051,"br_status":1,"t_bus":50016,"b_to":0.0,"index":98,"angmin":-0.6981317007977318,"angmax":0.6981317007977318,"transformer":true,"tap":1.05},"70":{"br_r":0.0,"rate_a":10.0,"shift":0.0,"rate_b":10.0,"br_x":0.01,"rate_c":10.0,"g_to":0.0,"g_fr":0.0,"source_id":["branch",70],"b_fr":0.0,"f_bus":4061,"br_status":1,"t_bus":61,"b_to":0.0,"index":70,"angmin":-0.6981317007977318,"angmax":0.6981317007977318,"transformer":true,"tap":1.03},"14":{"br_r":0.0379882,"rate_a":3.5,"shift":0.0,"rate_b":3.5,"br_x":0.28,"rate_c":3.5,"g_to":0.0,"g_fr":0.0,"source_id":["branch",14],"b_fr":0.029995,"f_bus":1042,"br_status":1,"t_bus":1044,"b_to":0.029995,"index":14,"angmin":-0.6981317007977318,"angmax":0.6981317007977318,"transformer":false,"tap":1.0},"7":{"br_r":0.03,"rate_a":3.5,"shift":0.0,"rate_b":3.5,"br_x":0.2,"rate_c":3.5,"g_to":0.0,"g_fr":0.0,"source_id":["branch",7],"b_fr":0.01513,"f_bus":1021,"br_status":1,"t_bus":1022,"b_to":0.01513,"index":7,"angmin":-0.6981317007977318,"angmax":0.6981317007977318,"transformer":false,"tap":1.0},"96":{"br_r":0.0,"rate_a":7.0,"shift":0.0,"rate_b":7.0,"br_x":0.0214285714,"rate_c":7.0,"g_to":0.0,"g_fr":0.0,"source_id":["branch",96],"b_fr":0.0,"f_bus":4042,"br_status":1,"t_bus":50014,"b_to":0.0,"index":96,"angmin":-0.6981317007977318,"angmax":0.6981317007977318,"transformer":true,"tap":1.05},"57":{"br_r":0.0,"rate_a":14.0,"shift":0.0,"rate_b":14.0,"br_x":0.00714285714,"rate_c":14.0,"g_to":0.0,"g_fr":0.0,"source_id":["branch",57],"b_fr":0.0,"f_bus":1045,"br_status":1,"t_bus":5,"b_to":0.0,"index":57,"angmin":-0.6981317007977318,"angmax":0.6981317007977318,"transformer":true,"tap":1.0},"8":{"br_r":0.03,"rate_a":3.5,"shift":0.0,"rate_b":3.5,"br_x":0.2,"rate_c":3.5,"g_to":0.0,"g_fr":0.0,"source_id":["branch",8],"b_fr":0.01513,"f_bus":1021,"br_status":1,"t_bus":1022,"b_to":0.01513,"index":8,"angmin":-0.6981317007977318,"angmax":0.6981317007977318,"transformer":false,"tap":1.0},"64":{"br_r":0.0,"rate_a":10.8,"shift":0.0,"rate_b":10.8,"br_x":0.00925925926,"rate_c":10.8,"g_to":0.0,"g_fr":0.0,"source_id":["branch",64],"b_fr":0.0,"f_bus":4041,"br_status":1,"t_bus":41,"b_to":0.0,"index":64,"angmin":-0.6981317007977318,"angmax":0.6981317007977318,"transformer":true,"tap":1.04},"19":{"br_r":0.0120041,"rate_a":5.0,"shift":0.0,"rate_b":5.0,"br_x":0.09,"rate_c":5.0,"g_to":0.0,"g_fr":0.0,"source_id":["branch",19],"b_fr":0.007605,"f_bus":2031,"br_status":1,"t_bus":2032,"b_to":0.007605,"index":19,"angmin":-0.6981317007977318,"angmax":0.6981317007977318,"transformer":false,"tap":1.0},"91":{"br_r":0.0,"rate_a":10.0,"shift":0.0,"rate_b":10.0,"br_x":0.015,"rate_c":10.0,"g_to":0.0,"g_fr":0.0,"source_id":["branch",91],"b_fr":0.0,"f_bus":4011,"br_status":1,"t_bus":50009,"b_to":0.0,"index":91,"angmin":-0.6981317007977318,"angmax":0.6981317007977318,"transformer":true,"tap":1.05},"102":{"br_r":0.0,"rate_a":45.0,"shift":0.0,"rate_b":45.0,"br_x":0.00333333333,"rate_c":45.0,"g_to":0.0,"g_fr":0.0,"source_id":["branch",102],"b_fr":0.0,"f_bus":4072,"br_status":1,"t_bus":50020,"b_to":0.0,"index":102,"angmin":-0.6981317007977318,"angmax":0.6981317007977318,"transformer":true,"tap":1.05},"69":{"br_r":0.0,"rate_a":16.0,"shift":0.0,"rate_b":16.0,"br_x":0.00625,"rate_c":16.0,"g_to":0.0,"g_fr":0.0,"source_id":["branch",69],"b_fr":0.0,"f_bus":4051,"br_status":1,"t_bus":51,"b_to":0.0,"index":69,"angmin":-0.6981317007977318,"angmax":0.6981317007977318,"transformer":true,"tap":1.05},"60":{"br_r":0.0,"rate_a":2.0,"shift":0.0,"rate_b":2.0,"br_x":0.05,"rate_c":2.0,"g_to":0.0,"g_fr":0.0,"source_id":["branch",60],"b_fr":0.0,"f_bus":1013,"br_status":1,"t_bus":13,"b_to":0.0,"index":60,"angmin":-0.6981317007977318,"angmax":0.6981317007977318,"transformer":true,"tap":1.04},"97":{"br_r":0.0,"rate_a":12.0,"shift":0.0,"rate_b":12.0,"br_x":0.0125,"rate_c":12.0,"g_to":0.0,"g_fr":0.0,"source_id":["branch",97],"b_fr":0.0,"f_bus":4047,"br_status":1,"t_bus":50015,"b_to":0.0,"index":97,"angmin":-0.6981317007977318,"angmax":0.6981317007977318,"transformer":true,"tap":1.05},"4":{"br_r":0.0140237,"rate_a":3.5,"shift":0.0,"rate_b":3.5,"br_x":0.09,"rate_c":3.5,"g_to":0.0,"g_fr":0.0,"source_id":["branch",4],"b_fr":0.009025,"f_bus":1012,"br_status":1,"t_bus":1014,"b_to":0.009025,"index":4,"angmin":-0.6981317007977318,"angmax":0.6981317007977318,"transformer":false,"tap":1.0},"22":{"br_r":0.004,"rate_a":14.0,"shift":0.0,"rate_b":14.0,"br_x":0.04,"rate_c":14.0,"g_to":0.0,"g_fr":0.0,"source_id":["branch",22],"b_fr":0.60067,"f_bus":4011,"br_status":1,"t_bus":4022,"b_to":0.60067,"index":22,"angmin":-0.6981317007977318,"angmax":0.6981317007977318,"transformer":false,"tap":1.0},"11":{"br_r":0.0149704,"rate_a":3.5,"shift":0.0,"rate_b":3.5,"br_x":0.12,"rate_c":3.5,"g_to":0.0,"g_fr":0.0,"source_id":["branch",11],"b_fr":0.012475,"f_bus":1041,"br_status":1,"t_bus":1045,"b_to":0.012475,"index":11,"angmin":-0.6981317007977318,"angmax":0.6981317007977318,"transformer":false,"tap":1.0},"35":{"br_r":0.003,"rate_a":14.0,"shift":0.0,"rate_b":14.0,"br_x":0.03,"rate_c":14.0,"g_to":0.0,"g_fr":0.0,"source_id":["branch",35],"b_fr":0.44987,"f_bus":4041,"br_status":1,"t_bus":4044,"b_to":0.44987,"index":35,"angmin":-0.6981317007977318,"angmax":0.6981317007977318,"transformer":false,"tap":1.0},"13":{"br_r":0.0379882,"rate_a":3.5,"shift":0.0,"rate_b":3.5,"br_x":0.28,"rate_c":3.5,"g_to":0.0,"g_fr":0.0,"source_id":["branch",13],"b_fr":0.029995,"f_bus":1042,"br_status":1,"t_bus":1044,"b_to":0.029995,"index":13,"angmin":-0.6981317007977318,"angmax":0.6981317007977318,"transformer":false,"tap":1.0},"15":{"br_r":0.05,"rate_a":3.5,"shift":0.0,"rate_b":3.5,"br_x":0.3,"rate_c":3.5,"g_to":0.0,"g_fr":0.0,"source_id":["branch",15],"b_fr":0.029995,"f_bus":1042,"br_status":1,"t_bus":1045,"b_to":0.029995,"index":15,"angmin":-0.6981317007977318,"angmax":0.6981317007977318,"transformer":false,"tap":1.0},"61":{"br_r":0.0,"rate_a":5.6,"shift":0.0,"rate_b":5.6,"br_x":0.0178571429,"rate_c":5.6,"g_to":0.0,"g_fr":0.0,"source_id":["branch",61],"b_fr":0.0,"f_bus":1022,"br_status":1,"t_bus":22,"b_to":0.0,"index":61,"angmin":-0.6981317007977318,"angmax":0.6981317007977318,"transformer":true,"tap":1.04},"67":{"br_r":0.0,"rate_a":14.0,"shift":0.0,"rate_b":14.0,"br_x":0.00714285714,"rate_c":14.0,"g_to":0.0,"g_fr":0.0,"source_id":["branch",67],"b_fr":0.0,"f_bus":4046,"br_status":1,"t_bus":46,"b_to":0.0,"index":67,"angmin":-0.6981317007977318,"angmax":0.6981317007977318,"transformer":true,"tap":1.02},"16":{"br_r":0.01,"rate_a":3.5,"shift":0.0,"rate_b":3.5,"br_x":0.08,"rate_c":3.5,"g_to":0.0,"g_fr":0.0,"source_id":["branch",16],"b_fr":0.007965,"f_bus":1043,"br_status":1,"t_bus":1044,"b_to":0.007965,"index":16,"angmin":-0.6981317007977318,"angmax":0.6981317007977318,"transformer":false,"tap":1.0},"100":{"br_r":0.0,"rate_a":12.0,"shift":0.0,"rate_b":12.0,"br_x":0.0125,"rate_c":12.0,"g_to":0.0,"g_fr":0.0,"source_id":["branch",100],"b_fr":0.0,"f_bus":4063,"br_status":1,"t_bus":50018,"b_to":0.0,"index":100,"angmin":-0.6981317007977318,"angmax":0.6981317007977318,"transformer":true,"tap":1.05},"40":{"br_r":0.001,"rate_a":14.0,"shift":0.0,"rate_b":14.0,"br_x":0.01,"rate_c":14.0,"g_to":0.0,"g_fr":0.0,"source_id":["branch",40],"b_fr":0.150795,"f_bus":4043,"br_status":1,"t_bus":4046,"b_to":0.150795,"index":40,"angmin":-0.6981317007977318,"angmax":0.6981317007977318,"transformer":false,"tap":1.0},"21":{"br_r":0.006,"rate_a":14.0,"shift":0.0,"rate_b":14.0,"br_x":0.06,"rate_c":14.0,"g_to":0.0,"g_fr":0.0,"source_id":["branch",21],"b_fr":0.899745,"f_bus":4011,"br_status":1,"t_bus":4021,"b_to":0.899745,"index":21,"angmin":-0.6981317007977318,"angmax":0.6981317007977318,"transformer":false,"tap":1.0},"38":{"br_r":0.002,"rate_a":14.0,"shift":0.0,"rate_b":14.0,"br_x":0.02,"rate_c":14.0,"g_to":0.0,"g_fr":0.0,"source_id":["branch",38],"b_fr":0.29909,"f_bus":4042,"br_status":1,"t_bus":4044,"b_to":0.29909,"index":38,"angmin":-0.6981317007977318,"angmax":0.6981317007977318,"transformer":false,"tap":1.0},"46":{"br_r":0.011,"rate_a":14.0,"shift":0.0,"rate_b":14.0,"br_x":0.08,"rate_c":14.0,"g_to":0.0,"g_fr":0.0,"source_id":["branch",46],"b_fr":1.19883,"f_bus":4045,"br_status":1,"t_bus":4062,"b_to":1.19883,"index":46,"angmin":-0.6981317007977318,"angmax":0.6981317007977318,"transformer":false,"tap":1.0},"72":{"br_r":0.0,"rate_a":11.8,"shift":0.0,"rate_b":11.8,"br_x":0.00847457627,"rate_c":11.8,"g_to":0.0,"g_fr":0.0,"source_id":["branch",72],"b_fr":0.0,"f_bus":4063,"br_status":1,"t_bus":63,"b_to":0.0,"index":72,"angmin":-0.6981317007977318,"angmax":0.6981317007977318,"transformer":true,"tap":1.03},"83":{"br_r":0.0,"rate_a":4.0,"shift":0.0,"rate_b":4.0,"br_x":0.0375,"rate_c":4.0,"g_to":0.0,"g_fr":0.0,"source_id":["branch",83],"b_fr":0.0,"f_bus":1042,"br_status":1,"t_bus":50006,"b_to":0.0,"index":83,"angmin":-0.6981317007977318,"angmax":0.6981317007977318,"transformer":true,"tap":1.05},"45":{"br_r":0.004,"rate_a":14.0,"shift":0.0,"rate_b":14.0,"br_x":0.04,"rate_c":14.0,"g_to":0.0,"g_fr":0.0,"source_id":["branch",45],"b_fr":0.60067,"f_bus":4045,"br_status":1,"t_bus":4051,"b_to":0.60067,"index":45,"angmin":-0.6981317007977318,"angmax":0.6981317007977318,"transformer":false,"tap":1.0},"68":{"br_r":0.0,"rate_a":2.0,"shift":0.0,"rate_b":2.0,"br_x":0.05,"rate_c":2.0,"g_to":0.0,"g_fr":0.0,"source_id":["branch",68],"b_fr":0.0,"f_bus":4047,"br_status":1,"t_bus":47,"b_to":0.0,"index":68,"angmin":-0.6981317007977318,"angmax":0.6981317007977318,"transformer":true,"tap":1.04},"56":{"br_r":0.0,"rate_a":16.0,"shift":0.0,"rate_b":16.0,"br_x":0.00625,"rate_c":16.0,"g_to":0.0,"g_fr":0.0,"source_id":["branch",56],"b_fr":0.0,"f_bus":1044,"br_status":1,"t_bus":4,"b_to":0.0,"index":56,"angmin":-0.6981317007977318,"angmax":0.6981317007977318,"transformer":true,"tap":0.99},"36":{"br_r":0.006,"rate_a":14.0,"shift":0.0,"rate_b":14.0,"br_x":0.045,"rate_c":14.0,"g_to":0.0,"g_fr":0.0,"source_id":["branch",36],"b_fr":0.650945,"f_bus":4041,"br_status":1,"t_bus":4061,"b_to":0.650945,"index":36,"angmin":-0.6981317007977318,"angmax":0.6981317007977318,"transformer":false,"tap":1.0},"66":{"br_r":0.0,"rate_a":18.0,"shift":0.0,"rate_b":18.0,"br_x":0.00555555556,"rate_c":18.0,"g_to":0.0,"g_fr":0.0,"source_id":["branch",66],"b_fr":0.0,"f_bus":4043,"br_status":1,"t_bus":43,"b_to":0.0,"index":66,"angmin":-0.6981317007977318,"angmax":0.6981317007977318,"transformer":true,"tap":1.02},"76":{"br_r":0.0,"rate_a":12.5,"shift":0.0,"rate_b":12.5,"br_x":0.008,"rate_c":12.5,"g_to":0.0,"g_fr":0.0,"source_id":["branch",76],"b_fr":0.0,"f_bus":4012,"br_status":1,"t_bus":1012,"b_to":0.0,"index":76,"angmin":-0.6981317007977318,"angmax":0.6981317007977318,"transformer":true,"tap":0.95},"95":{"br_r":0.0,"rate_a":3.0,"shift":0.0,"rate_b":3.0,"br_x":0.0333333333,"rate_c":3.0,"g_to":0.0,"g_fr":0.0,"source_id":["branch",95],"b_fr":0.0,"f_bus":4041,"br_status":1,"t_bus":50013,"b_to":0.0,"index":95,"angmin":-0.6981317007977318,"angmax":0.6981317007977318,"transformer":true,"tap":1.05},"85":{"br_r":0.0,"rate_a":10.0,"shift":0.0,"rate_b":10.0,"br_x":0.01,"rate_c":10.0,"g_to":0.0,"g_fr":0.0,"source_id":["branch",85],"b_fr":0.0,"f_bus":4044,"br_status":1,"t_bus":1044,"b_to":0.0,"index":85,"angmin":-0.6981317007977318,"angmax":0.6981317007977318,"transformer":true,"tap":1.03},"48":{"br_r":0.002,"rate_a":14.0,"shift":0.0,"rate_b":14.0,"br_x":0.02,"rate_c":14.0,"g_to":0.0,"g_fr":0.0,"source_id":["branch",48],"b_fr":0.29909,"f_bus":4061,"br_status":1,"t_bus":4062,"b_to":0.29909,"index":48,"angmin":-0.6981317007977318,"angmax":0.6981317007977318,"transformer":false,"tap":1.0},"18":{"br_r":0.0120041,"rate_a":5.0,"shift":0.0,"rate_b":5.0,"br_x":0.09,"rate_c":5.0,"g_to":0.0,"g_fr":0.0,"source_id":["branch",18],"b_fr":0.007605,"f_bus":2031,"br_status":1,"t_bus":2032,"b_to":0.007605,"index":18,"angmin":-0.6981317007977318,"angmax":0.6981317007977318,"transformer":false,"tap":1.0},"30":{"br_r":0.001,"rate_a":14.0,"shift":0.0,"rate_b":14.0,"br_x":0.01,"rate_c":14.0,"g_to":0.0,"g_fr":0.0,"source_id":["branch",30],"b_fr":0.150795,"f_bus":4031,"br_status":1,"t_bus":4032,"b_to":0.150795,"index":30,"angmin":-0.6981317007977318,"angmax":0.6981317007977318,"transformer":false,"tap":1.0},"3":{"br_r":0.0140237,"rate_a":3.5,"shift":0.0,"rate_b":3.5,"br_x":0.09,"rate_c":3.5,"g_to":0.0,"g_fr":0.0,"source_id":["branch",3],"b_fr":0.009025,"f_bus":1012,"br_status":1,"t_bus":1014,"b_to":0.009025,"index":3,"angmin":-0.6981317007977318,"angmax":0.6981317007977318,"transformer":false,"tap":1.0}},"storage":{},"switch":{},"f_base":50.0,"baseMVA":100,"variable_f":false,"per_unit":true,"shunt":{"4":{"source_id":["bus",1044],"shunt_bus":1044,"status":1,"gs":0.0,"bs":2.0,"index":4},"1":{"source_id":["bus",1022],"shunt_bus":1022,"status":1,"gs":0.0,"bs":0.5,"index":1},"2":{"source_id":["bus",1041],"shunt_bus":1041,"status":1,"gs":0.0,"bs":2.5,"index":2},"6":{"source_id":["bus",4012],"shunt_bus":4012,"status":1,"gs":0.0,"bs":-1.0,"index":6},"11":{"source_id":["bus",4071],"shunt_bus":4071,"status":1,"gs":0.0,"bs":-4.0,"index":11},"5":{"source_id":["bus",1045],"shunt_bus":1045,"status":1,"gs":0.0,"bs":2.0,"index":5},"7":{"source_id":["bus",4041],"shunt_bus":4041,"status":1,"gs":0.0,"bs":2.0,"index":7},"8":{"source_id":["bus",4043],"shunt_bus":4043,"status":1,"gs":0.0,"bs":2.0,"index":8},"10":{"source_id":["bus",4051],"shunt_bus":4051,"status":1,"gs":0.0,"bs":1.0,"index":10},"9":{"source_id":["bus",4046],"shunt_bus":4046,"status":1,"gs":0.0,"bs":1.0,"index":9},"3":{"source_id":["bus",1043],"shunt_bus":1043,"status":1,"gs":0.0,"bs":2.0,"index":3}},"load":{"4":{"source_id":["bus",4],"load_bus":4,"status":1,"qd":2.38036017,"pd":8.16395408,"index":4},"1":{"source_id":["bus",1],"load_bus":1,"status":1,"qd":1.4173811,"pd":5.86773235,"index":1},"12":{"source_id":["bus",41],"load_bus":41,"status":1,"qd":1.23052459,"pd":5.22565813,"index":12},"20":{"source_id":["bus",63],"load_bus":63,"status":1,"qd":2.63689962,"pd":5.8898500799999995,"index":20},"2":{"source_id":["bus",2],"load_bus":2,"status":1,"qd":0.7018649410000001,"pd":3.28104988,"index":2},"6":{"source_id":["bus",11],"load_bus":11,"status":1,"qd":0.686000389,"pd":1.99709432,"index":6},"22":{"source_id":["bus",72],"load_bus":72,"status":1,"qd":3.96797487,"pd":20.0175904,"index":22},"11":{"source_id":["bus",32],"load_bus":32,"status":1,"qd":0.393440189,"pd":1.99352544,"index":11},"13":{"source_id":["bus",42],"load_bus":42,"status":1,"qd":1.1909803700000001,"pd":3.8674752,"index":13},"5":{"source_id":["bus",5],"load_bus":5,"status":1,"qd":1.81753884,"pd":7.03462049,"index":5},"15":{"source_id":["bus",46],"load_bus":46,"status":1,"qd":2.0289756800000003,"pd":6.85129955,"index":15},"16":{"source_id":["bus",47],"load_bus":47,"status":1,"qd":0.42839488099999995,"pd":0.9867176550000001,"index":16},"14":{"source_id":["bus",43],"load_bus":43,"status":1,"qd":2.41363801,"pd":8.76292979,"index":14},"21":{"source_id":["bus",71],"load_bus":71,"status":1,"qd":0.838441337,"pd":3.00078509,"index":21},"7":{"source_id":["bus",12],"load_bus":12,"status":1,"qd":0.8379339090000001,"pd":2.99989103,"index":7},"8":{"source_id":["bus",13],"load_bus":13,"status":1,"qd":0.34434885299999995,"pd":1.00050383,"index":8},"17":{"source_id":["bus",51],"load_bus":51,"status":1,"qd":2.52402351,"pd":7.909666959999999,"index":17},"10":{"source_id":["bus",31],"load_bus":31,"status":1,"qd":0.238313272,"pd":0.982266795,"index":10},"19":{"source_id":["bus",62],"load_bus":62,"status":1,"qd":0.826363251,"pd":2.97909426,"index":19},"9":{"source_id":["bus",22],"load_bus":22,"status":1,"qd":0.789764801,"pd":2.7837764499999995,"index":9},"18":{"source_id":["bus",61],"load_bus":61,"status":1,"qd":1.18770784,"pd":4.92329583,"index":18},"3":{"source_id":["bus",3],"load_bus":3,"status":1,"qd":0.804663534,"pd":2.54775599,"index":3}}},"2":{"bus":{"1":{"converter_sw1":{"1":0.0},"zone":1,"converter_sw3":{"1":0.0},"bus_i":1,"bus_type":3,"name":"Bus 1\tLF","converter_sw2":{"1":0.0},"converter_index":[[1,2,1]],"converter_c2":{"1":0.0},"converter_vmax":{"1":1.1},"vmax":1.1,"source_id":["bus",1],"area":1,"converter_c3":{"1":0.0},"vmin":0.9,"index":1,"va":0.0,"converter_M":{"1":0.9},"vm":1.0,"converter_imax":{"1":40.0},"base_kv":400.0,"converter_c1":{"1":0.0}},"2":{"converter_sw1":{"2":0.0},"zone":1,"converter_sw3":{"2":0.0},"bus_i":2,"bus_type":1,"name":"Bus 2\tLF","converter_sw2":{"2":0.0},"converter_index":[[2,2,2]],"converter_c2":{"2":0.0},"converter_vmax":{"2":1.1},"vmax":1.1,"source_id":["bus",2],"area":2,"converter_c3":{"2":0.0},"vmin":0.9,"index":2,"va":0.0,"converter_M":{"2":0.9},"vm":1.0,"converter_imax":{"2":40.0},"base_kv":400.0,"converter_c1":{"2":0.0}}},"source_type":"matpower","f_min":50,"name":"fault_4032_4044_1_original_10","dcline":{},"source_version":"2","gen":{"1":{"pg":0.0,"qg":0.0,"gen_bus":1,"pmax":0.0,"vg":1.0,"mbase":0.0,"source_id":["gen",1],"index":1,"qmax":0.0,"gen_status":0,"qmin":0.0,"pmin":0.0}},"branch":{"1":{"br_r":0.01,"rate_a":14.0,"shift":0.0,"rate_b":14.0,"br_x":0.1,"rate_c":14.0,"g_to":0.0,"g_fr":0.0,"source_id":["branch",1],"b_fr":1.50043,"f_bus":1,"br_status":1,"t_bus":2,"b_to":1.50043,"index":1,"angmin":-0.6981317007977318,"angmax":0.6981317007977318,"transformer":false,"tap":1.0}},"f_max":50,"storage":{},"switch":{},"f_base":50.0,"baseMVA":100,"variable_f":true,"per_unit":true,"shunt":{},"load":{}}}}